/*--------------------------------*- C++ -*----------------------------------*\
| =========                 |                                                 |
| \\      /  F ield         | OpenFOAM: The Open Source CFD Toolbox           |
|  \\    /   O peration     | Version:  4.x                                   |
|   \\  /    A nd           | Web:      www.OpenFOAM.org                      |
|    \\/     M anipulation  |                                                 |
\*---------------------------------------------------------------------------*/
FoamFile
{
    version     2.0;
    format      ascii;
    class       dictionary;
    location    "system";
    object      controlDict;
}
// * * * * * * * * * * * * * * * * * * * * * * * * * * * * * * * * * * * * * //
libs ( "librhoCentralFoam_CO2.so"
     );

application     rhoCentralFoam_ej;

startFrom       latestTime;//startTime;//latestTime;

startTime       0.0045;

stopAt          endTime;

endTime         5.0;

deltaT          1e-9;

writeControl    adjustableRunTime;

writeInterval   0.003;

cycleWrite      0;

writeFormat     ascii;

writePrecision  6;

writeCompression off;

timeFormat      general;

timePrecision   6;

runTimeModifiable true;

adjustTimeStep  yes;

maxCo           0.2;

maxDeltaT       1;


// ************************************************************************* //
