/*--------------------------------*- C++ -*----------------------------------*\
| =========                 |                                                 |
| \\      /  F ield         | OpenFOAM: The Open Source CFD Toolbox           |
|  \\    /   O peration     | Version:  4.x                                   |
|   \\  /    A nd           | Web:      www.OpenFOAM.org                      |
|    \\/     M anipulation  |                                                 |
\*---------------------------------------------------------------------------*/
FoamFile
{
    version     2.0;
    format      ascii;
    class       dictionary;
    location    "system";
    object      setFieldsDict;
}
// * * * * * * * * * * * * * * * * * * * * * * * * * * * * * * * * * * * * * //

defaultFieldValues (volVectorFieldValue U (1.0 0 0) volScalarFieldValue rho 248.22 volScalarFieldValue e 374.2273e+03 volScalarFieldValue T 311.86 volScalarFieldValue p 7.5995e6);

regions ( boxToCell { box (0.019 -1 -1) (1 1 1) ; fieldValues ( volScalarFieldValue rho 187.46 volScalarFieldValue e 374.2e+03 volScalarFieldValue T 293.44 volScalarFieldValue p 5.682e6 ) ; } );

// ************************************************************************* //
